python/psse/rts96_no_bateries_reduced_gens.m
function mpc = rts96_1
mpc.version = '2';
mpc.baseMVA = 100.0;
mpc.f = 60;
mpc.bus = [
%bus_i type       Pd          Qd           Gs         Bs    area      Vm           Va        baseKV  zone      Vmax         Vmin
    1    2      97.200      19.800       0.000       0.000    1     1.03913      -5.133        138    1       1.100       0.950
    2    2      87.300      18.000       0.000       0.000    1     1.03999      -5.252        138    1       1.100       0.950
    3    1     162.000      33.300       0.000       0.000    1     1.00417      -4.186        138    1       1.050       0.950
    4    1      66.600      13.500       0.000       0.000    1     1.01146      -8.512        138    1       1.050       0.950
    5    1      63.900      12.600       0.000       0.000    1     1.02906      -8.647        138    1       1.050       0.950
    6    1     122.400      25.200       0.000    -100.000    1     1.02807     -11.447        138    1       1.050       0.950
    7    2     112.500      22.500       0.000       0.000    1     0.98483     -16.956        138    1       1.100       0.950
    8    1     153.900      31.500       0.000       0.000    1     0.97633     -16.280        138    1       1.050       0.950
    9    1     157.500      32.400       0.000       0.000    1     1.01804      -7.539        138    1       1.050       0.950
   10    1     175.500      36.000       0.000       0.000    1     1.04352      -9.392        138    1       1.050       0.950
   11    1       0.000       0.000       0.000       0.000    1     1.02516      -2.654        230    1       1.050       0.950
   12    1       0.000       0.000       0.000       0.000    1     1.01781      -1.759        230    1       1.050       0.950
   13    3     238.500      48.600       0.000       0.000    1     1.04628      -0.079        230    1       1.100       0.950
   14    2     174.600      35.100       0.000       0.000    1     1.03759       0.648        230    1       1.100       0.950
   15    2     285.300      57.600       0.000       0.000    1     1.03258      12.111        230    1       1.100       0.950
   16    2      90.000      18.000       0.000       0.000    1     1.03528      11.019        230    1       1.100       0.950
   17    1       0.000       0.000       0.000       0.000    1     1.04636      15.692        230    1       1.050       0.950
   18    2     299.700      61.200       0.000       0.000    1     1.05351      17.142        230    1       1.100       0.950
   19    1     162.900      33.300       0.000       0.000    1     1.02743       9.125        230    1       1.050       0.950
   20    1     115.200      23.400       0.000       0.000    1     1.02950       9.203        230    1       1.050       0.950
   21    2       0.000       0.000       0.000       0.000    1     1.05326      17.847        230    1       1.100       0.950
   22    2       0.000       0.000       0.000       0.000    1     1.05484      23.453        230    1       1.100       0.950
   23    2       0.000       0.000       0.000       0.000    1     1.03345       9.920        230    1       1.100       0.950
   24    1       0.000       0.000       0.000       0.000    1     1.00070       6.099        230    1       1.050       0.950
];







mpc.gen = [
%bus         Pg         Qg         Qmax        Qmin          Vg  mBase status     Pmax         Pmin
%    1      31.600      -2.784      20.000      0.000        1.039  100    1      40.000      31.600
%    1     149.994      -2.784      60.000     -50.000       1.039  100    1     152.000      30.400  

    1     181.594      -5.568      80.000     -50.000       1.039  100    1     192.000      62.000  
    
    2      31.600       1.976      20.000      0.000        1.040  100    1      40.000      31.600
    
    2     149.994       1.976      60.000     -50.000       1.040  100    1     152.000      30.400
    
    7      98.490      39.186     180.000       0.000       0.985  100    1     300.000      75.000
    
    
   13     206.972     177.537     240.000       0.000       1.046  100    1     591.000      206.85
   
   
   13       0.000       0.000     999.000    -999.000       1.046  100    1     999.000     999.000
   14       0.000     104.397     200.000     -50.000       1.038  100    1       0.000       0.000
   15      15.985      37.410      30.000       0.000       1.033  100    1      60.000      12.000




   15     155.000       7.482      80.000     -50.000       1.033  100    1     155.000      54.250
   16     118.117      61.646      80.000     -50.000       1.035  100    1     155.000      54.250
   18     399.540      95.300     200.000     -50.000       1.054  100    1     400.000     100.000
   21     397.804      43.316     200.000     -50.000       1.053  100    1     400.000     100.000
   22     300.000     -31.632      96.000     -90.000       1.055  100    1     300.000       0.000

   
   
   
   
   23     291.510      -10.67     160.000    -100.000       1.033  100    1     310.000     108.500
   
   23     266.161      -5.335     150.000     -25.000       1.033  100    1     350.000     140.000
];
mpc.branch = [
%fbus tbus          r              x           b       rateA   rateB   rateC       ratio       angle status
    1    2       0.00300       0.01400       0.46100   175.0     0.0     0.0     0.00000       0.000    1
    1    3       0.05500       0.21100       0.05700   175.0     0.0     0.0     0.00000       0.000    1
    1    5       0.02200       0.08500       0.02300   175.0     0.0     0.0     0.00000       0.000    1
    2    4       0.03300       0.12700       0.03400   175.0     0.0     0.0     0.00000       0.000    1
    2    6       0.05000       0.19200       0.05200   175.0     0.0     0.0     0.00000       0.000    1
    3    9       0.03100       0.11900       0.03200   175.0     0.0     0.0     0.00000       0.000    1
    3   24       0.00200       0.08400       0.00000   400.0     0.0     0.0     1.01500       0.000    1
    4    9       0.02700       0.10400       0.02800   175.0     0.0     0.0     0.00000       0.000    1
    5   10       0.02300       0.08800       0.02400   175.0     0.0     0.0     0.00000       0.000    1
    6   10       0.01400       0.06100       2.45900   175.0     0.0     0.0     0.00000       0.000    1
    7    8       0.01600       0.06100       0.01700   175.0     0.0     0.0     0.00000       0.000    1
    8    9       0.04300       0.16500       0.04500   175.0     0.0     0.0     0.00000       0.000    1
    8   10       0.04300       0.16500       0.04500   175.0     0.0     0.0     0.00000       0.000    1
    9   11       0.00200       0.08400       0.00000   400.0     0.0     0.0     1.03000       0.000    1
    9   12       0.00200       0.08400       0.00000   400.0     0.0     0.0     1.03000       0.000    1
   10   11       0.00200       0.08400       0.00000   400.0     0.0     0.0     1.01500       0.000    1
   10   12       0.00200       0.08400       0.00000   400.0     0.0     0.0     1.01500       0.000    1
   11   13       0.00600       0.04800       0.10000   500.0     0.0     0.0     0.00000       0.000    1
   11   14       0.00500       0.04200       0.08800   500.0     0.0     0.0     0.00000       0.000    1
   12   13       0.00600       0.04800       0.10000   500.0     0.0     0.0     0.00000       0.000    1
   12   23       0.01200       0.09700       0.20300   500.0     0.0     0.0     0.00000       0.000    1
   13   23       0.01100       0.08700       0.18200   500.0     0.0     0.0     0.00000       0.000    1
   14   16       0.00500       0.05900       0.08200   500.0     0.0     0.0     0.00000       0.000    1
   15   16       0.00200       0.01700       0.03600   500.0     0.0     0.0     0.00000       0.000    1
   15   21       0.00600       0.04900       0.10300   500.0     0.0     0.0     0.00000       0.000    1
   15   21       0.00600       0.04900       0.10300   500.0     0.0     0.0     0.00000       0.000    1
   15   24       0.00700       0.05200       0.10900   500.0     0.0     0.0     0.00000       0.000    1
   16   17       0.00300       0.02600       0.05500   500.0     0.0     0.0     0.00000       0.000    1
   16   19       0.00300       0.02300       0.04900   500.0     0.0     0.0     0.00000       0.000    1
   17   18       0.00200       0.01400       0.03000   500.0     0.0     0.0     0.00000       0.000    1
   17   22       0.01400       0.10500       0.22100   500.0     0.0     0.0     0.00000       0.000    1
   18   21       0.00300       0.02600       0.05500   500.0     0.0     0.0     0.00000       0.000    1
   18   21       0.00300       0.02600       0.05500   500.0     0.0     0.0     0.00000       0.000    1
   19   20       0.00500       0.04000       0.08300   500.0     0.0     0.0     0.00000       0.000    1
   19   20       0.00500       0.04000       0.08300   500.0     0.0     0.0     0.00000       0.000    1
   20   23       0.00300       0.02200       0.04600   500.0     0.0     0.0     0.00000       0.000    1
   20   23       0.00300       0.02200       0.04600   500.0     0.0     0.0     0.00000       0.000    1
   21   22       0.00900       0.06800       0.14200   500.0     0.0     0.0     0.00000       0.000    1
];


mpc.gencost = [
%   2 startup shutdown n      c(n-1)...c0
    2      0      0    3      4.758578    -62.831977   1870.852035
    
%    2      0      0    3      0.039078      9.929620    169.334994
    
    2      0      0    3      4.758578    -62.831977   1870.852035
    
    2      0      0    3      0.039078      9.929620    169.334994
    
    2      0      0    3      0.031543     19.851591    343.004118
    
    
    2      0      0    3      0.013154     20.241609    501.234229
    
    
    2      0      0    3      0.013154     20.241609    501.234229
    2      0      0    3      0.000000      0.000000      0.000000
    2      0      0    3      0.418425     22.945301     44.469208
 
 


    2      0      0    3      0.418425     22.945301     44.469208
    2      0      0    3      0.007034      9.526064    232.845762
    2      0      0    3      0.007034      9.526064    232.845762
    2      0      0    3      0.000657      5.735263    271.694165
    2      0      0    3      0.000657      5.735263    271.694165
    
    
    
    
    
    2      0      0    3      0.000000      0.000000      0.000000
    2      0      0    3      0.007034      9.526064    232.845762
    
    2      0      0    3      0.004118      9.384331    408.479829
];


mpc.dynamics = [
%    S(MVA)   XG(pu)   XT(pu)       H(s)  D(MWs/rad)
        20    1.3333    0.5417      2.800     0.000
        
%        76    0.3371    0.1461      3.000     0.000
        
        20    1.3333    0.5417      2.800     0.000
        
        76    0.3371    0.1461      3.000     0.000
        
       100    0.2712    0.1102      2.800     0.000
       
       
       197    0.1379    0.0560      2.800     0.000
       
       
      9999    0.0001    0.0000        1e4     0.000
       200    0.1600    0.0650      2.800     0.000
        12    2.2857    0.9286      2.800     0.000
        
        
        
        
       155    0.1648    0.0714      3.000     0.000
       155    0.1648    0.0714      3.000     0.000
       400    0.0849    0.0318      5.000     0.000
       400    0.0849    0.0318      5.000     0.000
        50    0.5283    0.1887      3.500     0.000
       
       
       
        
        
       155    0.1648    0.0714      3.000     0.000
       
       350    0.0728    0.0316      3.000     0.000
];
mpc.dynamics(:,5) = 1;

mpc.xy = [
92	22
122	22
30	77
76	51
95	51
140	90
184	32
162	32
92	84
115	84
90	106
115	106
167	136
125	162
28	162
58	169
18	195
27	228
93	186
138	223
70	242
161	270
165	239
30	99
];

% Event types
% 1 Unit OFF
% 2 Load OFF
% 3 Load ON
% 4 Line OFF
% 5 Three-phase Short Circuit
% 99 Normal

% mpc.events(1).type = 1;
% mpc.events(1).time = 0;
% mpc.events(1).location = 9;

% mpc.events(1).type = 2;
% mpc.events(1).time = 0;
% mpc.events(1).location = 18;

% mpc.events(1).type = 3;
% mpc.events(1).time = 0;
% mpc.events(1).location = 15;
% mpc.events(1).p = 200;

mpc.events(1).type = 5;
mpc.events(1).time = 0;
mpc.events(1).location = 2;
mpc.events(2).type = 99;
mpc.events(2).time = 0.1;